72

SI    -0.706    -0.706    -0.706
SI     0.706     0.706     0.706
GE     2.119     2.119    -0.706
GE     3.531     3.531     0.706
SI    -0.706     2.119     2.119
SI     0.706     3.531     3.531
SI     2.119    -0.706     2.119
SI     3.531     0.706     3.531
SI    -0.706     4.944    -0.706
SI     0.706     6.356     0.706
GE     2.119     7.769    -0.706
GE     3.531     9.181     0.706
SI    -0.706     7.769     2.119
SI     0.706     9.181     3.531
GE     2.119     4.944     2.119
GE     3.531     6.356     3.531
SI    -0.706    10.594    -0.706
SI     0.706    12.006     0.706
SI     2.119    13.419    -0.706
SI     3.531    14.831     0.706
SI    -0.706    13.419     2.119
SI     0.706    14.831     3.531
GE     2.119    10.594     2.119
GE     3.531    12.006     3.531
SI     4.944    -0.706    -0.706
SI     6.356     0.706     0.706
GE     7.769     2.119    -0.706
GE     9.181     3.531     0.706
GE     4.944     2.119     2.119
GE     6.356     3.531     3.531
SI     7.769    -0.706     2.119
SI     9.181     0.706     3.531
GE     4.944     4.944    -0.706
GE     6.356     6.356     0.706
GE     7.769     7.769    -0.706
GE     9.181     9.181     0.706
GE     4.944     7.769     2.119
GE     6.356     9.181     3.531
GE     7.769     4.944     2.119
GE     9.181     6.356     3.531
GE     4.944    10.594    -0.706
GE     6.356    12.006     0.706
SI     7.769    13.419    -0.706
SI     9.181    14.831     0.706
SI     4.944    13.419     2.119
SI     6.356    14.831     3.531
GE     7.769    10.594     2.119
GE     9.181    12.006     3.531
SI    10.594    -0.706    -0.706
SI    12.006     0.706     0.706
SI    13.419     2.119    -0.706
SI    14.831     3.531     0.706
GE    10.594     2.119     2.119
GE    12.006     3.531     3.531
SI    13.419    -0.706     2.119
SI    14.831     0.706     3.531
GE    10.594     4.944    -0.706
GE    12.006     6.356     0.706
SI    13.419     7.769    -0.706
SI    14.831     9.181     0.706
GE    10.594     7.769     2.119
GE    12.006     9.181     3.531
SI    13.419     4.944     2.119
SI    14.831     6.356     3.531
GE    10.594    10.594    -0.706
GE    12.006    12.006     0.706
SI    13.419    13.419    -0.706
SI    14.831    14.831     0.706
SI    10.594    13.419     2.119
SI    12.006    14.831     3.531
SI    13.419    10.594     2.119
SI    14.831    12.006     3.531
